<?xml version="1.0" encoding="UTF-8"?>

<!-- generated on 2025-11-26 22:12:08 by Eclipse SUMO sumo Version 1.24.0
-->

<sumoConfiguration xmlns:xsi="http://www.w3.org/2001/XMLSchema-instance" xsi:noNamespaceSchemaLocation="http://sumo.dlr.de/xsd/sumoConfiguration.xsd">

    <input>
        <net-file value="2main_oneOnOff.net.xml"/>
        <route-files value="2lane_oneOnOff.rou.xml"/>
    </input>

</sumoConfiguration>
