<?xml version="1.0" encoding="UTF-8"?>

<!-- generated on 2025-11-26 22:12:08 by Eclipse SUMO netedit Version 1.24.0
-->

<routes xmlns:xsi="http://www.w3.org/2001/XMLSchema-instance" xsi:noNamespaceSchemaLocation="http://sumo.dlr.de/xsd/routes_file.xsd">
    <!-- Vehicles, persons and containers (sorted by depart) -->
    <flow id="f_0" begin="0.00" departLane="random" from="E0" to="E0.497" via="E0.212" end="3600.00" vehsPerHour="300"/>
    <flow id="f_2" begin="0.00" departLane="0" from="E0" to="E2" via="E0.212" end="3600.00" vehsPerHour="200"/>
    <flow id="f_3" begin="0.00" departLane="random" from="E1" to="E0.497" via="E0.212" end="3600.00" vehsPerHour="200"/>
</routes>
