<?xml version="1.0" encoding="UTF-8"?>

<!-- generated on 2025-11-03 11:32:17 by Eclipse SUMO netedit Version 1.24.0
-->

<routes xmlns:xsi="http://www.w3.org/2001/XMLSchema-instance" xsi:noNamespaceSchemaLocation="http://sumo.dlr.de/xsd/routes_file.xsd">
    <!-- Vehicles, persons and containers (sorted by depart) -->
    <flow id="f_0" begin="0.00" departLane="random" from="E0" to="E0.640" via="E0.259" end="3600.00" vehsPerHour="400"/>
    <flow id="f_1" begin="0.00" from="E0" to="E1" end="3600.00" vehsPerHour="100"/>
    <flow id="f_2" begin="0.00" from="E2" to="E0.640" end="3600.00" vehsPerHour="100"/>
</routes>
