<?xml version="1.0" encoding="UTF-8"?>

<!-- generated on 2025-11-02 09:06:53 by Eclipse SUMO netedit Version 1.24.0
-->

<routes xmlns:xsi="http://www.w3.org/2001/XMLSchema-instance" xsi:noNamespaceSchemaLocation="http://sumo.dlr.de/xsd/routes_file.xsd">
    <!-- Vehicles, persons and containers (sorted by depart) -->
    <flow id="f_0" begin="0.00" departLane="random" from="E1" to="E1" end="3600.00" number="300"/>
</routes>
